
**** 11/05/22 04:54:30 ****** PSpice Lite (October 2012) ****** ID# 10813 ****

 ** Profile: "SCHEMATIC1-stage3"  [ E:\study\solid labs\semiconductors-labs\lab1\Reverse bias p-n Junction-PSpiceFiles\SCHEMATIC1\sta


 ****     CIRCUIT DESCRIPTION


******************************************************************************




** Creating circuit file "stage3.cir" 
** WARNING: THIS AUTOMATICALLY GENERATED FILE MAY BE OVERWRITTEN BY SUBSEQUENT SIMULATIONS

*Libraries: 
* Profile Libraries :
* Local Libraries :
.LIB "../../../reverse bias p-n junction-pspicefiles/reverse bias p-n junction.lib" 
* From [PSPICE NETLIST] section of C:\SPB_Data\cdssetup\OrCAD_PSpice/16.6.0/PSpice.ini file:
.lib "nomd.lib" 

*Analysis directives: 
.DC V_V5 LIST -9.5 9.5 
.STEP V_V5 LIST -9.5 9.5 
.OPTIONS ADVCONV
.PROBE64 V(alias(*)) I(alias(*)) W(alias(*)) D(alias(*)) NOISE(alias(*)) 
.INC "..\SCHEMATIC1.net" 



**** INCLUDING SCHEMATIC1.net ****
* source REVERSE BIAS P-N JUNCTION
D_D1         N00135 N00142 Dbreak 
R_R1         0 N00135  10k TC=0,0 
V_V1         N00369 0 9.5V
V_V2         N00142 N00369 DC 0Vdc AC 0.2V 
R_R2         0 N00778  10k TC=0,0 
D_D2         N00778 N00786 Dbreak 
V_V3         N00814 0 9.5V
V_V4         N00786 N00814  AC 0
+SIN 0 0.2V 10MEG 0 0 0
V_V6         N01326 N01350 DC 0Vdc AC 0.5V 
R_R3         N01618 N01326  10k TC=0,0 
V_V7         N01466 0 5V
R_R4         N01639 N01450  10k TC=0,0 
D_D3         0 N01618 Dbreak 
V_V5         N01350 0 9.5V
D_D4         0 N01639 Dbreak 
V_V8         N01450 N01466  AC 0
+SIN 0 5v 10MEG 0 0 0

**** RESUMING stage3.cir ****
.END


ERROR(ORPSIM-15051): A device may appear in .DC and .STEP commands only once
