
**** 12/24/22 09:10:42 ****** PSpice Lite (October 2012) ****** ID# 10813 ****

 ** Profile: "SCHEMATIC1-sim1"  [ D:\lab4-ahmed\lab4-ahmed-PSpiceFiles\SCHEMATIC1\sim1.sim ] 


 ****     CIRCUIT DESCRIPTION


******************************************************************************




** Creating circuit file "sim1.cir" 
** WARNING: THIS AUTOMATICALLY GENERATED FILE MAY BE OVERWRITTEN BY SUBSEQUENT SIMULATIONS

*Libraries: 
* Profile Libraries :
* Local Libraries :
.LIB "../../../lab4-ahmed-pspicefiles/lab4-ahmed.lib" 
* From [PSPICE NETLIST] section of C:\SPB_Data\cdssetup\OrCAD_PSpice/16.6.0/PSpice.ini file:
.lib "nomd.lib" 

*Analysis directives: 
.DC LIN I_I1 0 10m 2.5m 
.STEP NPN QbreakN(BF) LIST 100 200 
.OPTIONS ADVCONV
.PROBE64 V(alias(*)) I(alias(*)) W(alias(*)) D(alias(*)) NOISE(alias(*)) 
.INC "..\SCHEMATIC1.net" 



**** INCLUDING SCHEMATIC1.net ****
* source LAB4-AHMED
Q_Q1         N00103 N00096 0 Qbreakn 
V_V1         N00103 0 5V
I_I1         0 N00096 DC 0Adc  

**** RESUMING sim1.cir ****
.END

**** 12/24/22 09:10:42 ****** PSpice Lite (October 2012) ****** ID# 10813 ****

 ** Profile: "SCHEMATIC1-sim1"  [ D:\lab4-ahmed\lab4-ahmed-PSpiceFiles\SCHEMATIC1\sim1.sim ] 


 ****     BJT MODEL PARAMETERS


******************************************************************************




               QbreakN         
               NPN             
       LEVEL    1            
          IS   10.000000E-12 
          BF  100            
          NF    1            
          BR    1            
          NR    1            
         ISS    0            
          RE    0            
          RC    0            
         CJE    0            
         VJE     .75         
         CJC    0            
         VJC     .75         
         MJC     .33         
        XCJC    1            
         CJS    0            
         VJS     .75         
          KF    0            
          AF    1            
          CN    2.42         
           D     .87         



          JOB CONCLUDED

**** 12/24/22 09:10:42 ****** PSpice Lite (October 2012) ****** ID# 10813 ****

 ** Profile: "SCHEMATIC1-sim1"  [ D:\lab4-ahmed\lab4-ahmed-PSpiceFiles\SCHEMATIC1\sim1.sim ] 


 ****     JOB STATISTICS SUMMARY

 ****     CURRENT STEP                     QBREAKN BF =  200   


******************************************************************************



  Total job time (using Solver 1)   =         .02
